20

C    0.00000000  0.00000000  0.00000000
C    0.52245300  1.25994100 -0.69251800
C    2.05419800  1.26084900 -0.73018600
C    2.58822400 -0.00002300 -1.41628200
C    2.05418400 -1.26088200 -0.73017300
C    0.52243900 -1.25995400 -0.69250300
H    0.13893500 -2.14624600 -0.17502400
H    0.12544400 -1.27930000 -1.71742600
H    2.41146800 -2.15984300 -1.24472200
H    2.44096400 -1.30719600  0.29729900
H    3.68411800 -0.00002900 -1.41190200
H    2.27040200 -0.00002600 -2.46804400
H    2.44097600  1.30716800  0.29728600
H    2.41149300  2.15980000 -1.24474300
H    0.12546000  1.27927900 -1.71744200
H    0.13895700  2.14624200 -0.17504900
N   -1.45502800  0.00000700  0.05906300
C   -2.31488100 -0.00000900 -0.80508900
O   -3.25385700 -0.00002300 -1.52254400
H    0.34509500  0.00000500  1.04099600
